* xyz  -1 2
  C   11.74900087301513     10.83466152787343      9.85570686810262
  C   10.48047716613088     11.21369140365122      9.51438834881580
  S   9.34064724310574     10.30916949725020     10.31790763388404
  C   10.47398596248998      9.40336030726578     11.12907407004676
  C   11.74529900769204      9.78042365234236     10.79607732244523
  H   12.64106060068348     11.29083790819463      9.45090881733661
  H   10.19420913092537     11.98899877875689      8.82181671349346
  H   10.18150178674088      8.62858482789267     11.81967233638997
  H   12.63411822921651      9.32267209677281     11.20614788948551
* 

%pal
 nprocs 4
end

 

! DFT  PBE0 RIJK cc-pVTZ

